results/cdk2///ligands/3QXP.A.X64_300_A.lig
 OpenBabel09152019553D

 28 30  0  0  1  0  0  0  0  0999 V2000
  -65.6110   82.3360   86.6820 N   0  0  0  0  0  0  0  0  0  0  0  0
  -64.3620   82.9200   84.8760 N   0  0  0  0  0  0  0  0  0  0  0  0
  -67.0930   81.4520   88.2430 N   0  0  0  0  0  0  0  0  0  0  0  0
  -61.5230   81.0200   79.0780 N   0  0  0  0  0  0  0  0  0  0  0  0
  -70.8140   79.7350   84.8620 N   0  0  0  0  0  0  0  0  0  0  0  0
  -67.1770   80.7140   86.0170 C   0  0  2  0  0  0  0  0  0  0  0  0
  -66.6550   81.4990   87.0370 C   0  0  0  0  0  0  0  0  0  0  0  0
  -65.3280   82.2110   85.4020 C   0  0  0  0  0  0  0  0  0  0  0  0
  -63.5890   82.6490   83.8470 C   0  0  0  0  0  0  0  0  0  0  0  0
  -68.2060   79.7820   86.1420 C   0  0  0  0  0  0  0  0  0  0  0  0
  -68.5410   78.9520   85.0580 C   0  0  0  0  0  0  0  0  0  0  0  0
  -69.8670   78.9620   84.4450 C   0  0  0  0  0  0  0  0  0  0  0  0
  -70.1340   78.0870   83.3390 C   0  0  0  0  0  0  0  0  0  0  0  0
  -69.1310   77.2180   82.8400 C   0  0  0  0  0  0  0  0  0  0  0  0
  -67.8350   77.2040   83.4390 C   0  0  0  0  0  0  0  0  0  0  0  0
  -67.5430   78.0570   84.5330 C   0  0  0  0  0  0  0  0  0  0  0  0
  -63.7050   81.4550   83.0520 C   0  0  0  0  0  0  0  0  0  0  0  0
  -62.8280   81.2250   81.9640 C   0  0  0  0  0  0  0  0  0  0  0  0
  -61.8290   82.1720   81.6510 C   0  0  0  0  0  0  0  0  0  0  0  0
  -61.7030   83.3650   82.4240 C   0  0  0  0  0  0  0  0  0  0  0  0
  -62.5780   83.5980   83.5110 C   0  0  0  0  0  0  0  0  0  0  0  0
  -68.7700   79.6170   87.2320 O   0  0  0  0  0  0  0  0  0  0  0  0
  -59.6680   81.0040   80.8160 O   0  0  0  0  0  0  0  0  0  0  0  0
  -60.1690   83.1090   79.7940 O   0  0  0  0  0  0  0  0  0  0  0  0
  -72.0370   79.2720   84.9330 O   0  0  0  0  0  0  0  0  0  0  0  0
  -70.5850   80.9830   85.1900 O   0  0  0  0  0  0  0  0  0  0  0  0
  -66.3220   81.0830   84.5530 S   0  0  0  0  0  0  0  0  0  0  0  0
  -60.7120   81.8530   80.2990 S   0  0  0  0  0  0  0  0  0  0  0  0
  1  7  1  0  0  0  0
  2  8  1  0  0  0  0
  4 28  1  0  0  0  0
  5 25  2  0  0  0  0
  5 26  2  0  0  0  0
  6 10  1  1  0  0  0
  6  7  1  0  0  0  0
  7  3  2  0  0  0  0
  8  1  2  0  0  0  0
  9  2  1  0  0  0  0
 10 22  2  0  0  0  0
 11 10  1  0  0  0  0
 12  5  1  0  0  0  0
 12 11  2  0  0  0  0
 13 12  1  0  0  0  0
 14 13  2  0  0  0  0
 14 15  1  0  0  0  0
 15 16  2  0  0  0  0
 16 11  1  0  0  0  0
 17  9  2  0  0  0  0
 18 17  1  0  0  0  0
 19 18  2  0  0  0  0
 19 20  1  0  0  0  0
 20 21  2  0  0  0  0
 21  9  1  0  0  0  0
 24 28  2  0  0  0  0
 27  8  1  0  0  0  0
 27  6  1  0  0  0  0
 28 23  2  0  0  0  0
 28 19  1  0  0  0  0
M  END
