results/cdk2///ligands/3R9D.A.X6B_590_A.lig
 OpenBabel09152019553D

 27 29  0  0  1  0  0  0  0  0999 V2000
   65.1710   81.9830  -14.8380 N   0  0  0  0  0  0  0  0  0  0  0  0
   63.8800   82.5740  -13.0730 N   0  0  0  0  0  0  0  0  0  0  0  0
   68.3860   79.1500  -12.8820 N   0  0  0  0  0  0  0  0  0  0  0  0
   66.7300   81.1380  -16.3210 N   0  0  0  0  0  0  0  0  0  0  0  0
   61.3280   81.0640   -7.0270 N   0  0  0  0  0  0  0  0  0  0  0  0
   66.8590   80.5400  -14.0620 C   0  0  2  0  0  0  0  0  0  0  0  0
   66.2830   81.2120  -15.1360 C   0  0  0  0  0  0  0  0  0  0  0  0
   64.8950   81.9070  -13.5540 C   0  0  0  0  0  0  0  0  0  0  0  0
   63.1660   82.3290  -12.0070 C   0  0  0  0  0  0  0  0  0  0  0  0
   67.9660   79.7110  -14.0900 C   0  0  0  0  0  0  0  0  0  0  0  0
   62.1780   83.2940  -11.6560 C   0  0  0  0  0  0  0  0  0  0  0  0
   61.3550   83.1080  -10.5190 C   0  0  0  0  0  0  0  0  0  0  0  0
   61.5060   81.9490   -9.7150 C   0  0  0  0  0  0  0  0  0  0  0  0
   62.4830   80.9700  -10.0360 C   0  0  0  0  0  0  0  0  0  0  0  0
   63.3140   81.1520  -11.1770 C   0  0  0  0  0  0  0  0  0  0  0  0
   69.4590   78.3120  -12.6860 C   0  0  0  0  0  0  0  0  0  0  0  0
   69.3950   77.3660  -11.6240 C   0  0  0  0  0  0  0  0  0  0  0  0
   70.4920   76.4860  -11.3750 C   0  0  0  0  0  0  0  0  0  0  0  0
   71.6570   76.5520  -12.1960 C   0  0  0  0  0  0  0  0  0  0  0  0
   71.7290   77.4910  -13.2590 C   0  0  0  0  0  0  0  0  0  0  0  0
   70.6390   78.3710  -13.5040 C   0  0  0  0  0  0  0  0  0  0  0  0
   68.5620   79.4860  -15.1440 O   0  0  0  0  0  0  0  0  0  0  0  0
   59.4210   80.8180   -8.6780 O   0  0  0  0  0  0  0  0  0  0  0  0
   59.8750   83.0130   -7.9380 O   0  0  0  0  0  0  0  0  0  0  0  0
   72.8110   77.5530  -14.0230 F   0  0  0  0  0  0  0  0  0  0  0  0
   65.9590   80.8970  -12.6280 S   0  0  0  0  0  0  0  0  0  0  0  0
   60.4570   81.7260   -8.3030 S   0  0  0  0  0  0  0  0  0  0  0  0
  1  8  2  0  0  0  0
  2  9  1  0  0  0  0
  3 16  1  0  0  0  0
  4  7  2  0  0  0  0
  6 10  1  6  0  0  0
  6 26  1  0  0  0  0
  7  1  1  0  0  0  0
  7  6  1  0  0  0  0
  8  2  1  0  0  0  0
  8 26  1  0  0  0  0
  9 11  2  0  0  0  0
  9 15  1  0  0  0  0
 10  3  1  0  0  0  0
 11 12  1  0  0  0  0
 12 13  2  0  0  0  0
 13 27  1  0  0  0  0
 14 13  1  0  0  0  0
 15 14  2  0  0  0  0
 16 17  1  0  0  0  0
 17 18  2  0  0  0  0
 19 18  1  0  0  0  0
 20 19  2  0  0  0  0
 21 20  1  0  0  0  0
 21 16  2  0  0  0  0
 22 10  2  0  0  0  0
 23 27  2  0  0  0  0
 25 20  1  0  0  0  0
 27 24  2  0  0  0  0
 27  5  1  0  0  0  0
M  END
