results/cdk2///ligands/3R9H.A.Z67_606_A.lig
 OpenBabel09152019553D

 28 30  0  0  0  0  0  0  0  0999 V2000
  -66.9160   -8.9650  -49.9820 C   0  0  0  0  0  0  0  0  0  0  0  0
  -66.4650   -9.7470  -51.0020 C   0  0  0  0  0  0  0  0  0  0  0  0
  -65.3230  -10.4740  -50.6790 N   0  0  0  0  0  0  0  0  0  0  0  0
  -64.9060  -10.2450  -49.4460 C   0  0  0  0  0  0  0  0  0  0  0  0
  -65.9050   -9.1300  -48.5540 S   0  0  0  0  0  0  0  0  0  0  0  0
  -68.0550   -8.0330  -49.9260 C   0  0  0  0  0  0  0  0  0  0  0  0
  -67.0380   -9.8380  -52.2680 N   0  0  0  0  0  0  0  0  0  0  0  0
  -63.7650  -10.8060  -48.9430 N   0  0  0  0  0  0  0  0  0  0  0  0
  -68.6460   -7.7390  -50.9680 O   0  0  0  0  0  0  0  0  0  0  0  0
  -61.4780  -10.3660  -45.5040 C   0  0  0  0  0  0  0  0  0  0  0  0
  -61.3170  -11.5430  -46.3140 C   0  0  0  0  0  0  0  0  0  0  0  0
  -62.1150  -11.7020  -47.4670 C   0  0  0  0  0  0  0  0  0  0  0  0
  -63.0710  -10.6940  -47.8120 C   0  0  0  0  0  0  0  0  0  0  0  0
  -63.2230   -9.5230  -46.9730 C   0  0  0  0  0  0  0  0  0  0  0  0
  -62.4290   -9.3620  -45.8210 C   0  0  0  0  0  0  0  0  0  0  0  0
  -60.4260  -10.1420  -44.1230 S   0  0  0  0  0  0  0  0  0  0  0  0
  -59.3380   -9.3120  -44.6450 O   0  0  0  0  0  0  0  0  0  0  0  0
  -61.2970   -9.2300  -42.9570 N   0  0  0  0  0  0  0  0  0  0  0  0
  -60.1180  -11.4690  -43.5560 O   0  0  0  0  0  0  0  0  0  0  0  0
  -68.3350   -7.5150  -48.7200 N   0  0  0  0  0  0  0  0  0  0  0  0
  -71.2410   -4.5600  -47.5870 C   0  0  0  0  0  0  0  0  0  0  0  0
  -71.6840   -5.7540  -48.2420 C   0  0  0  0  0  0  0  0  0  0  0  0
  -70.7320   -6.7580  -48.6290 C   0  0  0  0  0  0  0  0  0  0  0  0
  -69.3180   -6.5530  -48.3540 C   0  0  0  0  0  0  0  0  0  0  0  0
  -68.8920   -5.3510  -47.6990 C   0  0  0  0  0  0  0  0  0  0  0  0
  -69.8470   -4.3590  -47.3140 C   0  0  0  0  0  0  0  0  0  0  0  0
  -67.5660   -5.1510  -47.4420 F   0  0  0  0  0  0  0  0  0  0  0  0
  -71.1790   -7.8840  -49.2480 F   0  0  0  0  0  0  0  0  0  0  0  0
  1  6  1  0  0  0  0
  1  5  1  0  0  0  0
  2  3  1  0  0  0  0
  2  1  2  0  0  0  0
  3  4  2  0  0  0  0
  4  8  1  0  0  0  0
  4  5  1  0  0  0  0
  6 20  1  0  0  0  0
  7  2  1  0  0  0  0
  8 13  1  0  0  0  0
  9  6  2  0  0  0  0
 10 16  1  0  0  0  0
 11 10  2  0  0  0  0
 12 11  1  0  0  0  0
 13 12  2  0  0  0  0
 13 14  1  0  0  0  0
 14 15  2  0  0  0  0
 15 10  1  0  0  0  0
 16 19  2  0  0  0  0
 16 18  1  0  0  0  0
 17 16  2  0  0  0  0
 20 24  1  0  0  0  0
 21 26  1  0  0  0  0
 22 21  2  0  0  0  0
 23 24  2  0  0  0  0
 23 22  1  0  0  0  0
 24 25  1  0  0  0  0
 25 27  1  0  0  0  0
 25 26  2  0  0  0  0
 28 23  1  0  0  0  0
M  END
