results/cdk2///ligands/3RK5.A.07Z_436_A.lig
 OpenBabel09152019553D

 24 26  0  0  0  0  0  0  0  0999 V2000
   89.6130  118.4450  -47.8730 C   0  0  0  0  0  0  0  0  0  0  0  0
   90.2480  118.5180  -49.0850 N   0  0  0  0  0  0  0  0  0  0  0  0
   91.3690  117.8580  -49.5200 C   0  0  0  0  0  0  0  0  0  0  0  0
   91.7760  118.0740  -50.7720 N   0  0  0  0  0  0  0  0  0  0  0  0
   92.8530  117.3570  -51.0730 C   0  0  0  0  0  0  0  0  0  0  0  0
   93.3040  116.5530  -50.0320 C   0  0  0  0  0  0  0  0  0  0  0  0
   92.3430  116.7290  -48.6230 S   0  0  0  0  0  0  0  0  0  0  0  0
   93.3860  117.4180  -52.2380 N   0  0  0  0  0  0  0  0  0  0  0  0
   94.4760  115.6300  -50.1010 C   0  0  0  0  0  0  0  0  0  0  0  0
   94.8990  114.7500  -48.9710 C   0  0  0  0  0  0  0  0  0  0  0  0
   93.9340  113.9810  -48.2180 C   0  0  0  0  0  0  0  0  0  0  0  0
   94.3430  113.1320  -47.1500 C   0  0  0  0  0  0  0  0  0  0  0  0
   95.7150  113.0480  -46.8380 C   0  0  0  0  0  0  0  0  0  0  0  0
   96.6290  113.7830  -47.5690 N   0  0  0  0  0  0  0  0  0  0  0  0
   96.2680  114.6230  -48.6160 C   0  0  0  0  0  0  0  0  0  0  0  0
   95.1740  115.5730  -51.2560 O   0  0  0  0  0  0  0  0  0  0  0  0
   88.7260  119.5170  -47.5240 C   0  0  0  0  0  0  0  0  0  0  0  0
   88.0160  119.5020  -46.3060 C   0  0  0  0  0  0  0  0  0  0  0  0
   88.1620  118.4130  -45.3840 C   0  0  0  0  0  0  0  0  0  0  0  0
   89.0480  117.3350  -45.7170 C   0  0  0  0  0  0  0  0  0  0  0  0
   89.7610  117.3470  -46.9420 C   0  0  0  0  0  0  0  0  0  0  0  0
   87.3920  118.4270  -44.1090 C   0  0  0  0  0  0  0  0  0  0  0  0
   86.5640  119.4730  -43.8570 O   0  0  0  0  0  0  0  0  0  0  0  0
   87.4930  117.3880  -43.1600 O   0  0  0  0  0  0  0  0  0  0  0  0
  1 17  2  0  0  0  0
  1 21  1  0  0  0  0
  2  1  1  0  0  0  0
  3  2  1  0  0  0  0
  3  7  1  0  0  0  0
  4  3  2  0  0  0  0
  5  4  1  0  0  0  0
  5  6  1  0  0  0  0
  6  7  1  0  0  0  0
  8  5  2  0  0  0  0
  9  6  2  0  0  0  0
  9 10  1  0  0  0  0
 10 15  2  0  0  0  0
 10 11  1  0  0  0  0
 11 12  2  0  0  0  0
 12 13  1  0  0  0  0
 14 13  2  0  0  0  0
 15 14  1  0  0  0  0
 16  9  1  0  0  0  0
 17 18  1  0  0  0  0
 18 19  2  0  0  0  0
 19 22  1  0  0  0  0
 20 19  1  0  0  0  0
 21 20  2  0  0  0  0
 22 23  2  0  0  0  0
 22 24  1  0  0  0  0
M  END
